examples/California/case.raw
0, 100, 33, 0, 0, 60  / 06-Feb-2025 16:05:17 - MATPOWER 7.1


     1, 'BUS 1       ',       115, 1,    0,    0, 1,           1, -1.93980593, 1.06, 0.94, 1.06, 0.94
     2, 'BUS 2       ',        66, 1,    0,    0, 1,           1, -1.73352462, 1.06, 0.94, 1.06, 0.94
     3, 'BUS 3       ',        66, 1,    0,    0, 1,           1, -1.76337868, 1.06, 0.94, 1.06, 0.94
     4, 'BUS 4       ',       230, 1,    0,    0, 1,           1, -1.80275679, 1.06, 0.94, 1.06, 0.94
     5, 'BUS 5       ',       115, 1,    0,    0, 1,           1, -1.89717789, 1.06, 0.94, 1.06, 0.94
     6, 'BUS 6       ',        66, 2,    0,    0, 1,           1, -3.02850892, 1.06, 0.94, 1.06, 0.94
     7, 'BUS 7       ',       115, 1,    0,    0, 1,           1, -1.88482693, 1.06, 0.94, 1.06, 0.94
     8, 'BUS 8       ',       115, 1,    0,    0, 1,           1, -1.93295117, 1.06, 0.94, 1.06, 0.94
     9, 'BUS 9       ',       115, 1,    0,    0, 1,           1, -1.83895175, 1.06, 0.94, 1.06, 0.94
    10, 'BUS 10      ',       115, 1,    0,    0, 1,           1, -1.90881322, 1.06, 0.94, 1.06, 0.94
    11, 'BUS 11      ',       115, 1,    0,    0, 1,           1, -1.87029284, 1.06, 0.94, 1.06, 0.94
    12, 'BUS 12      ',        66, 1,    0,    0, 1,           1, -1.83241485, 1.06, 0.94, 1.06, 0.94
    13, 'BUS 13      ',       115, 1,    0,    0, 1,           1, -1.89699598, 1.06, 0.94, 1.06, 0.94
    14, 'BUS 14      ',        66, 1,    0,    0, 1,           1,  -1.8614509, 1.06, 0.94, 1.06, 0.94
    15, 'BUS 15      ',        66, 1,    0,    0, 1,           1,  -1.8144838, 1.06, 0.94, 1.06, 0.94
    16, 'BUS 16      ',        66, 2,    0,    0, 1,           1, -1.86240222, 1.06, 0.94, 1.06, 0.94
    17, 'BUS 17      ',        66, 2,    0,    0, 1,           1, -1.84519619, 1.06, 0.94, 1.06, 0.94
    18, 'BUS 18      ',       230, 1,    0,    0, 1,           1, -1.63023015, 1.06, 0.94, 1.06, 0.94
    19, 'BUS 19      ',       115, 2,    0,    0, 1,           1, -1.91642541, 1.06, 0.94, 1.06, 0.94
    20, 'BUS 20      ',       115, 1,    0,    0, 1,           1, -1.93845689, 1.06, 0.94, 1.06, 0.94
    21, 'BUS 21      ',       115, 1,    0,    0, 1,           1, -1.82601349, 1.06, 0.94, 1.06, 0.94
    22, 'BUS 22      ',       115, 1,    0,    0, 1,           1, -1.84105215, 1.06, 0.94, 1.06, 0.94
    23, 'BUS 23      ',        66, 1,    0,    0, 1,           1, -1.77754931, 1.06, 0.94, 1.06, 0.94
    24, 'BUS 24      ',        66, 1,    0,    0, 1,           1,  -1.8414864, 1.06, 0.94, 1.06, 0.94
    25, 'BUS 25      ',        66, 1,    0,    0, 1,           1, -1.88110829, 1.06, 0.94, 1.06, 0.94
    26, 'BUS 26      ',        66, 1,    0,    0, 1,           1, -1.86452695, 1.06, 0.94, 1.06, 0.94
    27, 'BUS 27      ',        66, 1,    0,    0, 1,           1, -1.87401788, 1.06, 0.94, 1.06, 0.94
    28, 'BUS 28      ',        66, 2,    0,    0, 1,           1, -1.85560919, 1.06, 0.94, 1.06, 0.94
    29, 'BUS 29      ',        66, 1,    0,    0, 1,           1, -1.86439136, 1.06, 0.94, 1.06, 0.94
    30, 'BUS 30      ',        66, 1,    0,    0, 1,           1, -1.86879856, 1.06, 0.94, 1.06, 0.94
    31, 'BUS 31      ',        66, 1,    0,    0, 1,           1, -1.90719102, 1.06, 0.94, 1.06, 0.94
    32, 'BUS 32      ',       115, 2,    0,    0, 1,           1, -1.85269029, 1.06, 0.94, 1.06, 0.94
    33, 'BUS 33      ',        66, 1,    0,    0, 1,           1, -1.83703493, 1.06, 0.94, 1.06, 0.94
    34, 'BUS 34      ',       115, 1,    0,    0, 1,           1, -1.79136128, 1.06, 0.94, 1.06, 0.94
    35, 'BUS 35      ',        66, 1,    0,    0, 1,           1, -1.91778705, 1.06, 0.94, 1.06, 0.94
    36, 'BUS 36      ',        66, 1,    0,    0, 1,           1, -2.17136225, 1.06, 0.94, 1.06, 0.94
    37, 'BUS 37      ',        66, 1,    0,    0, 1,           1, -1.92179128, 1.06, 0.94, 1.06, 0.94
    38, 'BUS 38      ',        66, 1,    0,    0, 1,           1, -2.17595447, 1.06, 0.94, 1.06, 0.94
    39, 'BUS 39      ',       115, 1,    0,    0, 1,           1, -0.195557869, 1.06, 0.94, 1.06, 0.94
    40, 'BUS 40      ',        66, 1,    0,    0, 1,           1, -1.96189059, 1.06, 0.94, 1.06, 0.94
    41, 'BUS 41      ',        66, 1,    0,    0, 1,           1, -1.98652652, 1.06, 0.94, 1.06, 0.94
    42, 'BUS 42      ',       115, 1,    0,    0, 1,           1, -2.21990256, 1.06, 0.94, 1.06, 0.94
    43, 'BUS 43      ',       115, 2,    0,    0, 1,           1, -1.90673506, 1.06, 0.94, 1.06, 0.94
    44, 'BUS 44      ',       115, 1,    0,    0, 1,           1, -1.90195146, 1.06, 0.94, 1.06, 0.94
    45, 'BUS 45      ',       115, 1,    0,    0, 1,           1, 0.555613354, 1.06, 0.94, 1.06, 0.94
    46, 'BUS 46      ',       115, 2,    0,    0, 1,           1,   -1.867221, 1.06, 0.94, 1.06, 0.94
    47, 'BUS 47      ',        66, 1,    0,    0, 1,           1, -1.96366661, 1.06, 0.94, 1.06, 0.94
    48, 'BUS 48      ',       115, 1,    0,    0, 1,           1, -1.90541926, 1.06, 0.94, 1.06, 0.94
    49, 'BUS 49      ',        66, 2,    0,    0, 1,           1, -1.90402472, 1.06, 0.94, 1.06, 0.94
    50, 'BUS 50      ',        66, 1,    0,    0, 1,           1, -1.91262746, 1.06, 0.94, 1.06, 0.94
    51, 'BUS 51      ',        66, 2,    0,    0, 1,           1, -2.17286691, 1.06, 0.94, 1.06, 0.94
    52, 'BUS 52      ',       115, 1,    0,    0, 1,           1, -1.90578789, 1.06, 0.94, 1.06, 0.94
    53, 'BUS 53      ',       115, 1,    0,    0, 1,           1,  -2.2161384, 1.06, 0.94, 1.06, 0.94
    54, 'BUS 54      ',       115, 1,    0,    0, 1,           1, -1.84908074, 1.06, 0.94, 1.06, 0.94
    55, 'BUS 55      ',        66, 1,    0,    0, 1,           1, -1.82975354, 1.06, 0.94, 1.06, 0.94
    56, 'BUS 56      ',       115, 1,    0,    0, 1,           1, -1.84231348, 1.06, 0.94, 1.06, 0.94
    57, 'BUS 57      ',        66, 1,    0,    0, 1,           1, -1.83896205, 1.06, 0.94, 1.06, 0.94
    58, 'BUS 58      ',       115, 1,    0,    0, 1,           1, -1.83817297, 1.06, 0.94, 1.06, 0.94
    59, 'BUS 59      ',       230, 1,    0,    0, 1,           1, -1.74070941, 1.06, 0.94, 1.06, 0.94
    60, 'BUS 60      ',       115, 2,    0,    0, 1,           1, -1.83817297, 1.06, 0.94, 1.06, 0.94
    61, 'BUS 61      ',        66, 1,    0,    0, 1,           1, -1.82796839, 1.06, 0.94, 1.06, 0.94
    62, 'BUS 62      ',        66, 1,    0,    0, 1,           1, -2.16988286, 1.06, 0.94, 1.06, 0.94
    63, 'BUS 63      ',        66, 1,    0,    0, 1,           1,  -2.1204573, 1.06, 0.94, 1.06, 0.94
    64, 'BUS 64      ',        66, 1,    0,    0, 1,           1,  -2.1810664, 1.06, 0.94, 1.06, 0.94
    65, 'BUS 65      ',        66, 1,    0,    0, 1,           1, -2.17978042, 1.06, 0.94, 1.06, 0.94
    66, 'BUS 66      ',        66, 1,    0,    0, 1,           1, -2.09891984, 1.06, 0.94, 1.06, 0.94
    67, 'BUS 67      ',        66, 1,    0,    0, 1,           1, -2.07085394, 1.06, 0.94, 1.06, 0.94
    68, 'BUS 68      ',        66, 2,    0,    0, 1,           1,  -2.1331414, 1.06, 0.94, 1.06, 0.94
    69, 'BUS 69      ',       115, 1,    0,    0, 1,           1, -1.87328341, 1.06, 0.94, 1.06, 0.94
    70, 'BUS 70      ',        66, 1,    0,    0, 1,           1, -1.70926769, 1.06, 0.94, 1.06, 0.94
    71, 'BUS 71      ',        66, 2,    0,    0, 1,           1, -1.82216882, 1.06, 0.94, 1.06, 0.94
    72, 'BUS 72      ',        66, 1,    0,    0, 1,           1, -1.70022783, 1.06, 0.94, 1.06, 0.94
    73, 'BUS 73      ',        66, 1,    0,    0, 1,           1, -1.82228258, 1.06, 0.94, 1.06, 0.94
    74, 'BUS 74      ',       115, 1,    0,    0, 1,           1,  -1.8863565, 1.06, 0.94, 1.06, 0.94
    75, 'BUS 75      ',       115, 1,    0,    0, 1,           1, -1.86808469, 1.06, 0.94, 1.06, 0.94
    76, 'BUS 76      ',        66, 2,    0,    0, 1,           1, -1.94185932, 1.06, 0.94, 1.06, 0.94
    77, 'BUS 77      ',        66, 1,    0,    0, 1,           1, -1.95359236, 1.06, 0.94, 1.06, 0.94
    78, 'BUS 78      ',        66, 1,    0,    0, 1,           1, -1.71997808, 1.06, 0.94, 1.06, 0.94
    79, 'BUS 79      ',        66, 1,    0,    0, 1,           1, -1.75423754, 1.06, 0.94, 1.06, 0.94
    80, 'BUS 80      ',       115, 1,    0,    0, 1,           1,  -1.8572525, 1.06, 0.94, 1.06, 0.94
    81, 'BUS 81      ',        66, 1,    0,    0, 1,           1, -1.75930088, 1.06, 0.94, 1.06, 0.94
    82, 'BUS 82      ',       115, 1,    0,    0, 1,           1, -1.86362063, 1.06, 0.94, 1.06, 0.94
    83, 'BUS 83      ',       115, 1,    0,    0, 1,           1, -1.81237178, 1.06, 0.94, 1.06, 0.94
    84, 'BUS 84      ',        66, 1,    0,    0, 1,           1, -1.84087553, 1.06, 0.94, 1.06, 0.94
    85, 'BUS 85      ',       115, 1,    0,    0, 1,           1, -1.88621398, 1.06, 0.94, 1.06, 0.94
    86, 'BUS 86      ',       115, 1,    0,    0, 1,           1, -1.87311537, 1.06, 0.94, 1.06, 0.94
    87, 'BUS 87      ',       115, 1,    0,    0, 1,           1, -1.80372137, 1.06, 0.94, 1.06, 0.94
    88, 'BUS 88      ',        66, 1,    0,    0, 1,           1,  -1.9428407, 1.06, 0.94, 1.06, 0.94
    89, 'BUS 89      ',        66, 1,    0,    0, 1,           1, -1.70924869, 1.06, 0.94, 1.06, 0.94
    90, 'BUS 90      ',       115, 2,    0,    0, 1,           1, -1.86138501, 1.06, 0.94, 1.06, 0.94
    91, 'BUS 91      ',        66, 1,    0,    0, 1,           1, -1.75638805, 1.06, 0.94, 1.06, 0.94
    92, 'BUS 92      ',       115, 1,    0,    0, 1,           1, -1.88598182, 1.06, 0.94, 1.06, 0.94
    93, 'BUS 93      ',       115, 1,    0,    0, 1,           1, -1.96379649, 1.06, 0.94, 1.06, 0.94
    94, 'BUS 94      ',        66, 1,    0,    0, 1,           1, -1.95982675, 1.06, 0.94, 1.06, 0.94
    95, 'BUS 95      ',       230, 1,    0,    0, 1,           1, -1.79268787, 1.06, 0.94, 1.06, 0.94
    96, 'BUS 96      ',        66, 1,    0,    0, 1,           1, -1.97942832, 1.06, 0.94, 1.06, 0.94
    97, 'BUS 97      ',        66, 1,    0,    0, 1,           1, -1.92684101, 1.06, 0.94, 1.06, 0.94
    98, 'BUS 98      ',        66, 1,    0,    0, 1,           1, -2.18807428, 1.06, 0.94, 1.06, 0.94
    99, 'BUS 99      ',       115, 1,    0,    0, 1,           1, -1.89616984, 1.06, 0.94, 1.06, 0.94
   100, 'BUS 100     ',       115, 1,    0,    0, 1,           1, -1.97668176, 1.06, 0.94, 1.06, 0.94
   101, 'BUS 101     ',        66, 1,    0,    0, 1,           1, -2.01410144, 1.06, 0.94, 1.06, 0.94
   102, 'BUS 102     ',        66, 1,    0,    0, 1,           1, -2.06900491, 1.06, 0.94, 1.06, 0.94
   103, 'BUS 103     ',       115, 2,    0,    0, 1,           1, -1.95932964, 1.06, 0.94, 1.06, 0.94
   104, 'BUS 104     ',        66, 1,    0,    0, 1,           1, -2.00098907, 1.06, 0.94, 1.06, 0.94
   105, 'BUS 105     ',        66, 2,    0,    0, 1,           1, -1.86665511, 1.06, 0.94, 1.06, 0.94
   106, 'BUS 106     ',       115, 2,    0,    0, 1,           1, -1.89105421, 1.06, 0.94, 1.06, 0.94
   107, 'BUS 107     ',       115, 1,    0,    0, 1,           1, -0.549530416, 1.06, 0.94, 1.06, 0.94
   108, 'BUS 108     ',       115, 2,    0,    0, 1,           1, -0.645077915, 1.06, 0.94, 1.06, 0.94
   109, 'BUS 109     ',        66, 1,    0,    0, 1,           1, -0.715003219, 1.06, 0.94, 1.06, 0.94
   110, 'BUS 110     ',        66, 1,    0,    0, 1,           1, -0.888714083, 1.06, 0.94, 1.06, 0.94
   111, 'BUS 111     ',       500, 2,    0,    0, 1,           1, -1.04280584, 1.06, 0.94, 1.06, 0.94
   112, 'BUS 112     ',        66, 2,    0,    0, 1,           1, -0.888499383, 1.06, 0.94, 1.06, 0.94
   113, 'BUS 113     ',       115, 2,    0,    0, 1,           1, -0.574791361, 1.06, 0.94, 1.06, 0.94
   114, 'BUS 114     ',        66, 1,    0,    0, 1,           1, -1.26552643, 1.06, 0.94, 1.06, 0.94
   115, 'BUS 115     ',        66, 1,    0,    0, 1,           1, -0.86596821, 1.06, 0.94, 1.06, 0.94
   116, 'BUS 116     ',        66, 2,    0,    0, 1,           1, -1.14816583, 1.06, 0.94, 1.06, 0.94
   117, 'BUS 117     ',       115, 1,    0,    0, 1,           1, -1.12673895, 1.06, 0.94, 1.06, 0.94
   118, 'BUS 118     ',        66, 1,    0,    0, 1,           1, -1.13065103, 1.06, 0.94, 1.06, 0.94
   119, 'BUS 119     ',        66, 1,    0,    0, 1,           1, -1.07524384, 1.06, 0.94, 1.06, 0.94
   120, 'BUS 120     ',        66, 1,    0,    0, 1,           1, -0.725753296, 1.06, 0.94, 1.06, 0.94
   121, 'BUS 121     ',       115, 2,    0,    0, 1,           1, -1.11845536, 1.06, 0.94, 1.06, 0.94
   122, 'BUS 122     ',        66, 1,    0,    0, 1,           1, -1.19557871, 1.06, 0.94, 1.06, 0.94
   123, 'BUS 123     ',        66, 1,    0,    0, 1,           1, -0.816548354, 1.06, 0.94, 1.06, 0.94
   124, 'BUS 124     ',       115, 1,    0,    0, 1,           1, -1.13473042, 1.06, 0.94, 1.06, 0.94
   125, 'BUS 125     ',        66, 2,    0,    0, 1,           1, -0.467428502, 1.06, 0.94, 1.06, 0.94
   126, 'BUS 126     ',        66, 1,    0,    0, 1,           1, -0.886776199, 1.06, 0.94, 1.06, 0.94
   127, 'BUS 127     ',        66, 1,    0,    0, 1,           1, -0.703017534, 1.06, 0.94, 1.06, 0.94
   128, 'BUS 128     ',        66, 1,    0,    0, 1,           1, -0.720855548, 1.06, 0.94, 1.06, 0.94
   129, 'BUS 129     ',        66, 1,    0,    0, 1,           1, -1.19703367, 1.06, 0.94, 1.06, 0.94
   130, 'BUS 130     ',        66, 1,    0,    0, 1,           1,   -1.080986, 1.06, 0.94, 1.06, 0.94
   131, 'BUS 131     ',        66, 2,    0,    0, 1,           1, -1.07516969, 1.06, 0.94, 1.06, 0.94
   132, 'BUS 132     ',        66, 1,    0,    0, 1,           1, -0.992140878, 1.06, 0.94, 1.06, 0.94
   133, 'BUS 133     ',        66, 1,    0,    0, 1,           1, -0.908118453, 1.06, 0.94, 1.06, 0.94
   134, 'BUS 134     ',        66, 1,    0,    0, 1,           1, -0.90762032, 1.06, 0.94, 1.06, 0.94
   135, 'BUS 135     ',       115, 1,    0,    0, 1,           1, -0.579938309, 1.06, 0.94, 1.06, 0.94
   136, 'BUS 136     ',       230, 1,    0,    0, 1,           1, -0.466449496, 1.06, 0.94, 1.06, 0.94
   137, 'BUS 137     ',        66, 2,    0,    0, 1,           1, -1.18292184, 1.06, 0.94, 1.06, 0.94
   138, 'BUS 138     ',        66, 2,    0,    0, 1,           1, -1.18591175, 1.06, 0.94, 1.06, 0.94
   139, 'BUS 139     ',        66, 1,    0,    0, 1,           1, -0.919656984, 1.06, 0.94, 1.06, 0.94
   140, 'BUS 140     ',        66, 1,    0,    0, 1,           1, -0.685852892, 1.06, 0.94, 1.06, 0.94
   141, 'BUS 141     ',       115, 1,    0,    0, 1,           1, -0.621120245, 1.06, 0.94, 1.06, 0.94
   142, 'BUS 142     ',       115, 1,    0,    0, 1,           1, -0.61740432, 1.06, 0.94, 1.06, 0.94
   143, 'BUS 143     ',        66, 1,    0,    0, 1,           1, -0.688998393, 1.06, 0.94, 1.06, 0.94
   144, 'BUS 144     ',        66, 1,    0,    0, 1,           1, -1.07653913, 1.06, 0.94, 1.06, 0.94
   145, 'BUS 145     ',        66, 2,    0,    0, 1,           1, -1.09144506, 1.06, 0.94, 1.06, 0.94
   146, 'BUS 146     ',        66, 1,    0,    0, 1,           1, -0.618804677, 1.06, 0.94, 1.06, 0.94
   147, 'BUS 147     ',       115, 1,    0,    0, 1,           1, -0.581817574, 1.06, 0.94, 1.06, 0.94
   148, 'BUS 148     ',        66, 1,    0,    0, 1,           1, -1.15168519, 1.06, 0.94, 1.06, 0.94
   149, 'BUS 149     ',        66, 2,    0,    0, 1,           1, -1.11262553, 1.06, 0.94, 1.06, 0.94
   150, 'BUS 150     ',       115, 1,    0,    0, 1,           1, -1.18175984, 1.06, 0.94, 1.06, 0.94
   151, 'BUS 151     ',        66, 1,    0,    0, 1,           1, -2.02194559, 1.06, 0.94, 1.06, 0.94
   152, 'BUS 152     ',        66, 1,    0,    0, 1,           1, -1.90359015, 1.06, 0.94, 1.06, 0.94
   153, 'BUS 153     ',        66, 1,    0,    0, 1,           1, -1.94449753, 1.06, 0.94, 1.06, 0.94
   154, 'BUS 154     ',       230, 1,    0,    0, 1,           1, -1.78655474, 1.06, 0.94, 1.06, 0.94
   155, 'BUS 155     ',        66, 2,    0,    0, 1,           1, -1.95171622, 1.06, 0.94, 1.06, 0.94
   156, 'BUS 156     ',        66, 1,    0,    0, 1,           1, -2.02987762, 1.06, 0.94, 1.06, 0.94
   157, 'BUS 157     ',        66, 1,    0,    0, 1,           1, -2.01293091, 1.06, 0.94, 1.06, 0.94
   158, 'BUS 158     ',        66, 2,    0,    0, 1,           1, -2.00639938, 1.06, 0.94, 1.06, 0.94
   159, 'BUS 159     ',        66, 2,    0,    0, 1,           1, -2.18376599, 1.06, 0.94, 1.06, 0.94
   160, 'BUS 160     ',        66, 1,    0,    0, 1,           1,  -2.1762775, 1.06, 0.94, 1.06, 0.94
   161, 'BUS 161     ',        66, 1,    0,    0, 1,           1, -2.21592608, 1.06, 0.94, 1.06, 0.94
   162, 'BUS 162     ',        66, 1,    0,    0, 1,           1, -2.18376599, 1.06, 0.94, 1.06, 0.94
   163, 'BUS 163     ',        66, 1,    0,    0, 1,           1, -2.18376599, 1.06, 0.94, 1.06, 0.94
   164, 'BUS 164     ',       115, 2,    0,    0, 1,           1, -2.03738056, 1.06, 0.94, 1.06, 0.94
   165, 'BUS 165     ',        66, 2,    0,    0, 1,           1, -2.18268297, 1.06, 0.94, 1.06, 0.94
   166, 'BUS 166     ',        66, 2,    0,    0, 1,           1, -3.04767069, 1.06, 0.94, 1.06, 0.94
   167, 'BUS 167     ',        66, 1,    0,    0, 1,           1, -3.05534857, 1.06, 0.94, 1.06, 0.94
   168, 'BUS 168     ',        66, 1,    0,    0, 1,           1,   -3.036599, 1.06, 0.94, 1.06, 0.94
   169, 'BUS 169     ',        66, 1,    0,    0, 1,           1, -2.16264486, 1.06, 0.94, 1.06, 0.94
   170, 'BUS 170     ',        66, 2,    0,    0, 1,           1, -2.16989294, 1.06, 0.94, 1.06, 0.94
   171, 'BUS 171     ',        66, 1,    0,    0, 1,           1, -2.18038071, 1.06, 0.94, 1.06, 0.94
   172, 'BUS 172     ',        66, 1,    0,    0, 1,           1,   -2.182848, 1.06, 0.94, 1.06, 0.94
   173, 'BUS 173     ',        66, 1,    0,    0, 1,           1, -2.19854475, 1.06, 0.94, 1.06, 0.94
   174, 'BUS 174     ',       230, 1,    0,    0, 1,           1, -1.64445622, 1.06, 0.94, 1.06, 0.94
   175, 'BUS 175     ',        66, 2,    0,    0, 1,           1, -2.20679647, 1.06, 0.94, 1.06, 0.94
   176, 'BUS 176     ',        66, 1,    0,    0, 1,           1, -2.12090854, 1.06, 0.94, 1.06, 0.94
   177, 'BUS 177     ',        66, 1,    0,    0, 1,           1, -2.20659424, 1.06, 0.94, 1.06, 0.94
   178, 'BUS 178     ',        66, 1,    0,    0, 1,           1, -2.13308192, 1.06, 0.94, 1.06, 0.94
   179, 'BUS 179     ',        66, 1,    0,    0, 1,           1,  -1.8851127, 1.06, 0.94, 1.06, 0.94
   180, 'BUS 180     ',        66, 1,    0,    0, 1,           1, -2.21073759, 1.06, 0.94, 1.06, 0.94
   181, 'BUS 181     ',       115, 2,    0,    0, 1,           1, 0.829116116, 1.06, 0.94, 1.06, 0.94
   182, 'BUS 182     ',       115, 2,    0,    0, 1,           1, 0.698453587, 1.06, 0.94, 1.06, 0.94
   183, 'BUS 183     ',        66, 1,    0,    0, 1,           1, 0.935785762, 1.06, 0.94, 1.06, 0.94
   184, 'BUS 184     ',       115, 1,    0,    0, 1,           1,  1.00473126, 1.06, 0.94, 1.06, 0.94
   185, 'BUS 185     ',       115, 1,    0,    0, 1,           1, 0.713644437, 1.06, 0.94, 1.06, 0.94
   186, 'BUS 186     ',        66, 1,    0,    0, 1,           1, 0.903843074, 1.06, 0.94, 1.06, 0.94
   187, 'BUS 187     ',       115, 1,    0,    0, 1,           1,  0.81955293, 1.06, 0.94, 1.06, 0.94
   188, 'BUS 188     ',       115, 1,    0,    0, 1,           1, 0.652624204, 1.06, 0.94, 1.06, 0.94
   189, 'BUS 189     ',       115, 1,    0,    0, 1,           1, 0.854676153, 1.06, 0.94, 1.06, 0.94
   190, 'BUS 190     ',       115, 1,    0,    0, 1,           1, 0.897244032, 1.06, 0.94, 1.06, 0.94
   191, 'BUS 191     ',       115, 1,    0,    0, 1,           1,  0.89834282, 1.06, 0.94, 1.06, 0.94
   192, 'BUS 192     ',        66, 2,    0,    0, 1,           1, 0.854078988, 1.06, 0.94, 1.06, 0.94
   193, 'BUS 193     ',        66, 1,    0,    0, 1,           1, 0.935143199, 1.06, 0.94, 1.06, 0.94
   194, 'BUS 194     ',       115, 2,    0,    0, 1,           1, 0.872314008, 1.06, 0.94, 1.06, 0.94
   195, 'BUS 195     ',        66, 2,    0,    0, 1,           1, 0.972228347, 1.06, 0.94, 1.06, 0.94
   196, 'BUS 196     ',       115, 1,    0,    0, 1,           1, 0.921732718, 1.06, 0.94, 1.06, 0.94
   197, 'BUS 197     ',       115, 1,    0,    0, 1,           1, 0.850254041, 1.06, 0.94, 1.06, 0.94
   198, 'BUS 198     ',       115, 2,    0,    0, 1,           1, 0.765124565, 1.06, 0.94, 1.06, 0.94
   199, 'BUS 199     ',        66, 1,    0,    0, 1,           1, 0.820652507, 1.06, 0.94, 1.06, 0.94
   200, 'BUS 200     ',        66, 2,    0,    0, 1,           1, 0.828221651, 1.06, 0.94, 1.06, 0.94
...
0 / END OF BUS DATA, BEGIN LOAD DATA
     1,  1, 1,    0,    0,  56.63055,  16.82986, 0, 0, 0, 0, 1, 1, 0
     2,  1, 1,    0,    0,  12.19259,  2.531658, 0, 0, 0, 0, 1, 1, 0
     4,  1, 1,    0,    0,  22.79708,  8.373246, 0, 0, 0, 0, 1, 1, 0
     5,  1, 1,    0,    0,  115.9727,  31.45554, 0, 0, 0, 0, 1, 1, 0
     7,  1, 1,    0,    0,  130.1195,   39.2229, 0, 0, 0, 0, 1, 1, 0
     8,  1, 1,    0,    0,  65.76244,   18.1186, 0, 0, 0, 0, 1, 1, 0
     9,  1, 1,    0,    0,  8.122213,   3.03706, 0, 0, 0, 0, 1, 1, 0
    10,  1, 1,    0,    0,  24.92802,  6.611186, 0, 0, 0, 0, 1, 1, 0
    11,  1, 1,    0,    0,  6.289234,  1.454923, 0, 0, 0, 0, 1, 1, 0
    12,  1, 1,    0,    0,   5.86119,  1.809312, 0, 0, 0, 0, 1, 1, 0
    13,  1, 1,    0,    0,  35.12038,  11.56332, 0, 0, 0, 0, 1, 1, 0
    14,  1, 1,    0,    0,  38.52843,  11.93472, 0, 0, 0, 0, 1, 1, 0
    15,  1, 1,    0,    0,  24.96815,  8.944599, 0, 0, 0, 0, 1, 1, 0
    16,  1, 1,    0,    0,  22.52322,  6.494711, 0, 0, 0, 0, 1, 1, 0
    17,  1, 1,    0,    0,  46.49276,  13.72596, 0, 0, 0, 0, 1, 1, 0
    19,  1, 1,    0,    0,  47.20006,  12.14425, 0, 0, 0, 0, 1, 1, 0
    20,  1, 1,    0,    0,  72.68817,  23.09512, 0, 0, 0, 0, 1, 1, 0
    21,  1, 1,    0,    0,  12.79008,  4.395018, 0, 0, 0, 0, 1, 1, 0
    22,  1, 1,    0,    0,   8.30597,  2.700633, 0, 0, 0, 0, 1, 1, 0
    24,  1, 1,    0,    0,  8.136243,  2.691899, 0, 0, 0, 0, 1, 1, 0
    25,  1, 1,    0,    0,  4.426398,  1.616637, 0, 0, 0, 0, 1, 1, 0
    26,  1, 1,    0,    0,  5.372609,  1.557388, 0, 0, 0, 0, 1, 1, 0
    27,  1, 1,    0,    0,  5.262409,   1.78375, 0, 0, 0, 0, 1, 1, 0
    29,  1, 1,    0,    0,  8.162315,  2.405407, 0, 0, 0, 0, 1, 1, 0
    30,  1, 1,    0,    0,  4.576034,  1.573848, 0, 0, 0, 0, 1, 1, 0
    31,  1, 1,    0,    0,   2.58341, 0.9087277, 0, 0, 0, 0, 1, 1, 0
    33,  1, 1,    0,    0,  4.946209,  1.806581, 0, 0, 0, 0, 1, 1, 0
    36,  1, 1,    0,    0,    8.2499,  2.426021, 0, 0, 0, 0, 1, 1, 0
    37,  1, 1,    0,    0,  12.89639,  2.837684, 0, 0, 0, 0, 1, 1, 0
    38,  1, 1,    0,    0,  2.624676, 0.9556706, 0, 0, 0, 0, 1, 1, 0
    39,  1, 1,    0,    0,  5.980582,  2.088419, 0, 0, 0, 0, 1, 1, 0
    41,  1, 1,    0,    0,  3.502698,  1.202843, 0, 0, 0, 0, 1, 1, 0
    42,  1, 1,    0,    0,  4.982185,  1.507445, 0, 0, 0, 0, 1, 1, 0
    44,  1, 1,    0,    0,  8.427539,  3.110618, 0, 0, 0, 0, 1, 1, 0
    47,  1, 1,    0,    0,  14.22938,  3.508082, 0, 0, 0, 0, 1, 1, 0
    48,  1, 1,    0,    0,  19.33269,  6.084597, 0, 0, 0, 0, 1, 1, 0
    52,  1, 1,    0,    0,  2.094532, 0.7525922, 0, 0, 0, 0, 1, 1, 0
    53,  1, 1,    0,    0,  4.633945,   1.28715, 0, 0, 0, 0, 1, 1, 0
    55,  1, 1,    0,    0,  3.175232,  1.283238, 0, 0, 0, 0, 1, 1, 0
    56,  1, 1,    0,    0,  8.272417,  2.440104, 0, 0, 0, 0, 1, 1, 0
    63,  1, 1,    0,    0,  7.591498,  2.261625, 0, 0, 0, 0, 1, 1, 0
    64,  1, 1,    0,    0,   6.69756,  1.972669, 0, 0, 0, 0, 1, 1, 0
    65,  1, 1,    0,    0,  7.249636,  2.450975, 0, 0, 0, 0, 1, 1, 0
    67,  1, 1,    0,    0,  3.208982, 0.9088765, 0, 0, 0, 0, 1, 1, 0
    69,  1, 1,    0,    0,  18.99603,  6.268909, 0, 0, 0, 0, 1, 1, 0
    70,  1, 1,    0,    0,  2.443231, 0.9427515, 0, 0, 0, 0, 1, 1, 0
    72,  1, 1,    0,    0,  2.457992, 0.9888953, 0, 0, 0, 0, 1, 1, 0
    74,  1, 1,    0,    0,  58.34948,  12.17606, 0, 0, 0, 0, 1, 1, 0
    75,  1, 1,    0,    0,  7.424551,  2.511355, 0, 0, 0, 0, 1, 1, 0
    77,  1, 1,    0,    0,  25.33561,  7.960218, 0, 0, 0, 0, 1, 1, 0
    78,  1, 1,    0,    0,  3.950462,  1.347123, 0, 0, 0, 0, 1, 1, 0
    80,  1, 1,    0,    0,  6.137581,  2.045659, 0, 0, 0, 0, 1, 1, 0
    81,  1, 1,    0,    0,   3.96636,  1.601886, 0, 0, 0, 0, 1, 1, 0
    82,  1, 1,    0,    0,  56.26587,  20.27895, 0, 0, 0, 0, 1, 1, 0
    83,  1, 1,    0,    0,  8.265393,  1.814878, 0, 0, 0, 0, 1, 1, 0
    84,  1, 1,    0,    0,  11.13218,  4.076919, 0, 0, 0, 0, 1, 1, 0
    85,  1, 1,    0,    0,  3.345253,  1.160074, 0, 0, 0, 0, 1, 1, 0
    86,  1, 1,    0,    0,  3.985699,  1.338044, 0, 0, 0, 0, 1, 1, 0
    87,  1, 1,    0,    0,  4.321363,  1.206506, 0, 0, 0, 0, 1, 1, 0
    88,  1, 1,    0,    0,  21.29072,  5.963818, 0, 0, 0, 0, 1, 1, 0
    90,  1, 1,    0,    0,  4.238186,  1.418112, 0, 0, 0, 0, 1, 1, 0
    91,  1, 1,    0,    0,  4.556398,  1.835935, 0, 0, 0, 0, 1, 1, 0
    92,  1, 1,    0,    0,  60.40207,  19.90823, 0, 0, 0, 0, 1, 1, 0
    93,  1, 1,    0,    0,  43.89343,  10.92238, 0, 0, 0, 0, 1, 1, 0
    94,  1, 1,    0,    0,  10.22018,  3.375163, 0, 0, 0, 0, 1, 1, 0
    95,  1, 1,    0,    0,  34.45713,  11.25809, 0, 0, 0, 0, 1, 1, 0
    96,  1, 1,    0,    0,  6.643341,   2.14152, 0, 0, 0, 0, 1, 1, 0
    99,  1, 1,    0,    0,  12.73975,  4.054304, 0, 0, 0, 0, 1, 1, 0
   100,  1, 1,    0,    0,  8.404097,   2.47462, 0, 0, 0, 0, 1, 1, 0
   101,  1, 1,    0,    0,   14.9408,  4.503733, 0, 0, 0, 0, 1, 1, 0
   102,  1, 1,    0,    0,  7.981533,  2.611161, 0, 0, 0, 0, 1, 1, 0
   104,  1, 1,    0,    0,  7.186141,  2.546136, 0, 0, 0, 0, 1, 1, 0
   106,  1, 1,    0,    0,  5.404674,  1.570435, 0, 0, 0, 0, 1, 1, 0
   107,  1, 1,    0,    0,  34.10702,  8.032546, 0, 0, 0, 0, 1, 1, 0
   108,  1, 1,    0,    0,  33.19975,  10.35987, 0, 0, 0, 0, 1, 1, 0
   109,  1, 1,    0,    0,  1.690909, 0.6455206, 0, 0, 0, 0, 1, 1, 0
   110,  1, 1,    0,    0,  10.74017,  2.734049, 0, 0, 0, 0, 1, 1, 0
   114,  1, 1,    0,    0,  11.51694,  2.140968, 0, 0, 0, 0, 1, 1, 0
   115,  1, 1,    0,    0,  7.034697,  2.304884, 0, 0, 0, 0, 1, 1, 0
   117,  1, 1,    0,    0,  12.98908,  4.191162, 0, 0, 0, 0, 1, 1, 0
   118,  1, 1,    0,    0,  5.356961,  1.068677, 0, 0, 0, 0, 1, 1, 0
   119,  1, 1,    0,    0,  15.56232,  4.775069, 0, 0, 0, 0, 1, 1, 0
   120,  1, 1,    0,    0,  4.161061,  1.339041, 0, 0, 0, 0, 1, 1, 0
   122,  1, 1,    0,    0,  2.476143, 0.6653919, 0, 0, 0, 0, 1, 1, 0
   123,  1, 1,    0,    0,  5.277197,  1.874356, 0, 0, 0, 0, 1, 1, 0
   124,  1, 1,    0,    0,  11.68029,  2.925425, 0, 0, 0, 0, 1, 1, 0
   126,  1, 1,    0,    0,  7.184185,  2.596343, 0, 0, 0, 0, 1, 1, 0
   128,  1, 1,    0,    0,  5.507503,  2.066319, 0, 0, 0, 0, 1, 1, 0
   133,  1, 1,    0,    0,  2.957071, 0.8983486, 0, 0, 0, 0, 1, 1, 0
   136,  1, 1,    0,    0,  10.54979,  2.647169, 0, 0, 0, 0, 1, 1, 0
   139,  1, 1,    0,    0,  11.09473,  3.058841, 0, 0, 0, 0, 1, 1, 0
   140,  1, 1,    0,    0,  19.59852,   5.92937, 0, 0, 0, 0, 1, 1, 0
   142,  1, 1,    0,    0,  17.34817,  5.364439, 0, 0, 0, 0, 1, 1, 0
   146,  1, 1,    0,    0,  5.468236,  1.126668, 0, 0, 0, 0, 1, 1, 0
   147,  1, 1,    0,    0,  86.76003,  18.02786, 0, 0, 0, 0, 1, 1, 0
   148,  1, 1,    0,    0,  12.71998,  3.155355, 0, 0, 0, 0, 1, 1, 0
   150,  1, 1,    0,    0,  9.235447,  3.170326, 0, 0, 0, 0, 1, 1, 0
   151,  1, 1,    0,    0,  4.853049,  1.455625, 0, 0, 0, 0, 1, 1, 0
   154,  1, 1,    0,    0,   5.77529,  1.607635, 0, 0, 0, 0, 1, 1, 0
   156,  1, 1,    0,    0,  4.937041,  1.418408, 0, 0, 0, 0, 1, 1, 0
   160,  1, 1,    0,    0,  12.66524,    3.7935, 0, 0, 0, 0, 1, 1, 0
   161,  1, 1,    0,    0,  4.010752,  1.418179, 0, 0, 0, 0, 1, 1, 0
   167,  1, 1,    0,    0,  3.886875,  1.214212, 0, 0, 0, 0, 1, 1, 0
   169,  1, 1,    0,    0,  9.934456,  3.710619, 0, 0, 0, 0, 1, 1, 0
   171,  1, 1,    0,    0,  5.166315,  1.652752, 0, 0, 0, 0, 1, 1, 0
   172,  1, 1,    0,    0,  11.24152, 0.7638148, 0, 0, 0, 0, 1, 1, 0
   174,  1, 1,    0,    0,   5.61177,  2.115475, 0, 0, 0, 0, 1, 1, 0
   177,  1, 1,    0,    0,  5.829972,  1.715254, 0, 0, 0, 0, 1, 1, 0
   179,  1, 1,    0,    0,  8.995276,  2.438856, 0, 0, 0, 0, 1, 1, 0
   180,  1, 1,    0,    0,  8.638255,  3.128906, 0, 0, 0, 0, 1, 1, 0
   181,  1, 1,    0,    0,  7.638927,  2.157305, 0, 0, 0, 0, 1, 1, 0
   183,  1, 1,    0,    0,  2.043541, 0.8549436, 0, 0, 0, 0, 1, 1, 0
   184,  1, 1,    0,    0,  6.874733,  2.176973, 0, 0, 0, 0, 1, 1, 0
   186,  1, 1,    0,    0,  15.03929,  5.321658, 0, 0, 0, 0, 1, 1, 0
   187,  1, 1,    0,    0,  11.67065,  3.747956, 0, 0, 0, 0, 1, 1, 0
   188,  1, 1,    0,    0,  9.867233,  3.427311, 0, 0, 0, 0, 1, 1, 0
   190,  1, 1,    0,    0,  4.255027,  1.223688, 0, 0, 0, 0, 1, 1, 0
   193,  1, 1,    0,    0,  1.614016, 0.5156963, 0, 0, 0, 0, 1, 1, 0
   197,  1, 1,    0,    0,   5.44687,  2.064642, 0, 0, 0, 0, 1, 1, 0
   199,  1, 1,    0,    0,  6.204669,  2.049148, 0, 0, 0, 0, 1, 1, 0
   207,  1, 1,    0,    0,  2.195529, 0.7781912, 0, 0, 0, 0, 1, 1, 0
   208,  1, 1,    0,    0,  2.785823,  1.035592, 0, 0, 0, 0, 1, 1, 0
   210,  1, 1,    0,    0,  7.631912,     1.995, 0, 0, 0, 0, 1, 1, 0
   211,  1, 1,    0,    0,  10.22184,  2.974495, 0, 0, 0, 0, 1, 1, 0
   212,  1, 1,    0,    0,   9.82408,   3.24892, 0, 0, 0, 0, 1, 1, 0
   215,  1, 1,    0,    0,  17.88731,  4.945746, 0, 0, 0, 0, 1, 1, 0
   216,  1, 1,    0,    0,  2.653184,   1.06197, 0, 0, 0, 0, 1, 1, 0
   217,  1, 1,    0,    0,  8.596922,  2.805368, 0, 0, 0, 0, 1, 1, 0
   218,  1, 1,    0,    0,   20.4653,   5.54973, 0, 0, 0, 0, 1, 1, 0
   221,  1, 1,    0,    0,  21.32522,  4.964557, 0, 0, 0, 0, 1, 1, 0
   222,  1, 1,    0,    0,  13.45811,  4.933359, 0, 0, 0, 0, 1, 1, 0
   223,  1, 1,    0,    0,   3.96973,  1.334731, 0, 0, 0, 0, 1, 1, 0
   224,  1, 1,    0,    0,  7.113522,  2.486307, 0, 0, 0, 0, 1, 1, 0
   227,  1, 1,    0,    0,  11.04555,  3.863224, 0, 0, 0, 0, 1, 1, 0
   228,  1, 1,    0,    0,  31.63762,  8.551823, 0, 0, 0, 0, 1, 1, 0
   232,  1, 1,    0,    0,    10.373,  2.991154, 0, 0, 0, 0, 1, 1, 0
   234,  1, 1,    0,    0,  2.814812,  1.195708, 0, 0, 0, 0, 1, 1, 0
   237,  1, 1,    0,    0,  10.61367,  1.469584, 0, 0, 0, 0, 1, 1, 0
   238,  1, 1,    0,    0,  4.704925,  1.538682, 0, 0, 0, 0, 1, 1, 0
   240,  1, 1,    0,    0,  34.33491,  11.00771, 0, 0, 0, 0, 1, 1, 0
   246,  1, 1,    0,    0,  30.90283,   5.37177, 0, 0, 0, 0, 1, 1, 0
   247,  1, 1,    0,    0,  3.493335,  1.525415, 0, 0, 0, 0, 1, 1, 0
   251,  1, 1,    0,    0,  14.20787,  4.607082, 0, 0, 0, 0, 1, 1, 0
   252,  1, 1,    0,    0,  6.454185,  2.682721, 0, 0, 0, 0, 1, 1, 0
   254,  1, 1,    0,    0,  60.13655,  13.68877, 0, 0, 0, 0, 1, 1, 0
   255,  1, 1,    0,    0,  6.867846,  1.943114, 0, 0, 0, 0, 1, 1, 0
   257,  1, 1,    0,    0,  2.696485,  0.791054, 0, 0, 0, 0, 1, 1, 0
   259,  1, 1,    0,    0,  32.82744,  11.40211, 0, 0, 0, 0, 1, 1, 0
   260,  1, 1,    0,    0,  6.317074,  2.114187, 0, 0, 0, 0, 1, 1, 0
   261,  1, 1,    0,    0,  10.01877,  3.427235, 0, 0, 0, 0, 1, 1, 0
   263,  1, 1,    0,    0,  13.70345,  3.925814, 0, 0, 0, 0, 1, 1, 0
   264,  1, 1,    0,    0,  4.100526,  1.691371, 0, 0, 0, 0, 1, 1, 0
   266,  1, 1,    0,    0,   7.48365,  2.908808, 0, 0, 0, 0, 1, 1, 0
   267,  1, 1,    0,    0,  7.451074,  2.555613, 0, 0, 0, 0, 1, 1, 0
   271,  1, 1,    0,    0,  5.422112,  1.447313, 0, 0, 0, 0, 1, 1, 0
   272,  1, 1,    0,    0,   26.7826,  6.919093, 0, 0, 0, 0, 1, 1, 0
   275,  1, 1,    0,    0,  7.536229,  2.594348, 0, 0, 0, 0, 1, 1, 0
   277,  1, 1,    0,    0,  7.343149,  1.858096, 0, 0, 0, 0, 1, 1, 0
   278,  1, 1,    0,    0,  3.932785,  1.606569, 0, 0, 0, 0, 1, 1, 0
   279,  1, 1,    0,    0,  5.253355,  1.595735, 0, 0, 0, 0, 1, 1, 0
   280,  1, 1,    0,    0,  37.54934,  12.28833, 0, 0, 0, 0, 1, 1, 0
   281,  1, 1,    0,    0,  2.981972,  1.000834, 0, 0, 0, 0, 1, 1, 0
   283,  1, 1,    0,    0,  4.642729,  1.712564, 0, 0, 0, 0, 1, 1, 0
   290,  1, 1,    0,    0,  5.137203,  1.930128, 0, 0, 0, 0, 1, 1, 0
   291,  1, 1,    0,    0,  8.180847,  2.699717, 0, 0, 0, 0, 1, 1, 0
   292,  1, 1,    0,    0,  19.41561,  4.710086, 0, 0, 0, 0, 1, 1, 0
   293,  1, 1,    0,    0,   7.33723,  2.292904, 0, 0, 0, 0, 1, 1, 0
   296,  1, 1,    0,    0,  5.341245,  2.078277, 0, 0, 0, 0, 1, 1, 0
   298,  1, 1,    0,    0,  8.267322,  2.754115, 0, 0, 0, 0, 1, 1, 0
   299,  1, 1,    0,    0,  5.998097,   2.01922, 0, 0, 0, 0, 1, 1, 0
   306,  1, 1,    0,    0,  24.26656,   6.34153, 0, 0, 0, 0, 1, 1, 0
   307,  1, 1,    0,    0,  3.743696,   1.42297, 0, 0, 0, 0, 1, 1, 0
   310,  1, 1,    0,    0,  2.989849,  1.076272, 0, 0, 0, 0, 1, 1, 0
   311,  1, 1,    0,    0,  8.324321,  2.110529, 0, 0, 0, 0, 1, 1, 0
   312,  1, 1,    0,    0,  6.828698,  2.080037, 0, 0, 0, 0, 1, 1, 0
   313,  1, 1,    0,    0,  3.608824,  1.233136, 0, 0, 0, 0, 1, 1, 0
   314,  1, 1,    0,    0,  6.169479,  1.583486, 0, 0, 0, 0, 1, 1, 0
   315,  1, 1,    0,    0,  16.69789,  2.646689, 0, 0, 0, 0, 1, 1, 0
   316,  1, 1,    0,    0,  9.214505,  2.882341, 0, 0, 0, 0, 1, 1, 0
   320,  1, 1,    0,    0,  7.599595,  2.409579, 0, 0, 0, 0, 1, 1, 0
   321,  1, 1,    0,    0,  4.425772,  1.562993, 0, 0, 0, 0, 1, 1, 0
   323,  1, 1,    0,    0,  3.698284,  1.624022, 0, 0, 0, 0, 1, 1, 0
   325,  1, 1,    0,    0,  6.498088,  2.003553, 0, 0, 0, 0, 1, 1, 0
   329,  1, 1,    0,    0,  6.632096,  2.187562, 0, 0, 0, 0, 1, 1, 0
   330,  1, 1,    0,    0,  2.232372, 0.7336793, 0, 0, 0, 0, 1, 1, 0
   332,  1, 1,    0,    0,  14.58106,  3.936118, 0, 0, 0, 0, 1, 1, 0
   334,  1, 1,    0,    0,  6.488489,  2.019828, 0, 0, 0, 0, 1, 1, 0
   336,  1, 1,    0,    0,  5.072729,  1.305017, 0, 0, 0, 0, 1, 1, 0
   341,  1, 1,    0,    0,  21.73595,  5.367134, 0, 0, 0, 0, 1, 1, 0
   342,  1, 1,    0,    0,   132.803,  44.55387, 0, 0, 0, 0, 1, 1, 0
   343,  1, 1,    0,    0,  7.158213,  2.230666, 0, 0, 0, 0, 1, 1, 0
   344,  1, 1,    0,    0,   75.3092,  23.23895, 0, 0, 0, 0, 1, 1, 0
   345,  1, 1,    0,    0,  220.9765,  73.57371, 0, 0, 0, 0, 1, 1, 0
   346,  1, 1,    0,    0,  16.16563,  5.593288, 0, 0, 0, 0, 1, 1, 0
   347,  1, 1,    0,    0,  220.8675,   74.4939, 0, 0, 0, 0, 1, 1, 0
   348,  1, 1,    0,    0,  145.9395,  49.16556, 0, 0, 0, 0, 1, 1, 0
   349,  1, 1,    0,    0,  102.5416,  35.91523, 0, 0, 0, 0, 1, 1, 0
   350,  1, 1,    0,    0,  41.24252,   7.02693, 0, 0, 0, 0, 1, 1, 0
   351,  1, 1,    0,    0,   22.7224,  6.547421, 0, 0, 0, 0, 1, 1, 0
   352,  1, 1,    0,    0,  30.89856,  6.366499, 0, 0, 0, 0, 1, 1, 0
...
0 / END OF LOAD DATA, BEGIN FIXED SHUNT DATA
0 / END OF FIXED SHUNT DATA, BEGIN GENERATOR DATA
   745,  1,  4.033363,         0,  18.77714, -14.67071,        1, 0,       0, 0, 1, 0, 0, 1, 1, 100,      12.1,         0, 1, 1, 0, 1, 0, 1, 0, 1, 0, 1
  1804,  1,         0,         0,      34.5,     -23.7,        1, 0,       0, 0, 1, 0, 0, 1, 1, 100,      71.2,         0, 1, 1, 0, 1, 0, 1, 0, 1, 0, 1
  1804,  2,         0,         0,      34.5,     -23.7,        1, 0,       0, 0, 1, 0, 0, 1, 1, 100,      71.2,         0, 1, 1, 0, 1, 0, 1, 0, 1, 0, 1
  1964,  1, 0.3666691,         0,  18.77714, -14.67071,        1, 0,       0, 0, 1, 0, 0, 1, 1, 100,       1.1,         0, 1, 1, 0, 1, 0, 1, 0, 1, 0, 1
  1964,  2, 0.3666691,         0,  18.77714, -14.67071,        1, 0,       0, 0, 1, 0, 0, 1, 1, 100,       1.1,         0, 1, 1, 0, 1, 0, 1, 0, 1, 0, 1
  1964,  3, 0.3666691,         0,  18.77714, -14.67071,        1, 0,       0, 0, 1, 0, 0, 1, 1, 100,       1.1,         0, 1, 1, 0, 1, 0, 1, 0, 1, 0, 1
  1360,  1, 0.1666676,         0,  18.77714, -14.67071,        1, 0,       0, 0, 1, 0, 0, 1, 1, 100,       0.5,         0, 1, 1, 0, 1, 0, 1, 0, 1, 0, 1
  1360,  2, 0.1666676,         0,  18.77714, -14.67071,        1, 0,       0, 0, 1, 0, 0, 1, 1, 100,       0.5,         0, 1, 1, 0, 1, 0, 1, 0, 1, 0, 1
  1745,  1, 0.3333355,         0,  18.77714, -14.67071,        1, 0,       0, 0, 1, 0, 0, 1, 1, 100,         1,         0, 1, 1, 0, 1, 0, 1, 0, 1, 0, 1
   744,  1, 0.3333355,         0,  18.77714, -14.67071,        1, 0,       0, 0, 1, 0, 0, 1, 1, 100,         1,         0, 1, 1, 0, 1, 0, 1, 0, 1, 0, 1
  1587,  1, 0.4666699,         0,  18.77714, -14.67071,        1, 0,       0, 0, 1, 0, 0, 1, 1, 100,       1.4,         0, 1, 1, 0, 1, 0, 1, 0, 1, 0, 1
  8022,  1,  39.30029,         0,      57.1,     -39.3,        1, 0,       0, 0, 1, 0, 0, 1, 1, 100,     117.9,         0, 1, 1, 0, 1, 0, 1, 0, 1, 0, 1
  2220,  1,  11.00008,         0,         0,         0,        1, 0,       0, 0, 1, 0, 0, 1, 1, 100,        33,         0, 1, 1, 0, 1, 0, 1, 0, 1, 0, 1
  2220,  2,  11.00008,         0,         0,         0,        1, 0,       0, 0, 1, 0, 0, 1, 1, 100,        33,         0, 1, 1, 0, 1, 0, 1, 0, 1, 0, 1
  1748,  1,  13.33343,         0,      19.4,     -13.3,        1, 0,       0, 0, 1, 0, 0, 1, 1, 100,        40,         0, 1, 1, 0, 1, 0, 1, 0, 1, 0, 1
  8542,  1,  7.933392,         0,      11.5,      -7.9,        1, 0,       0, 0, 1, 0, 0, 1, 1, 100,      23.8,         0, 1, 1, 0, 1, 0, 1, 0, 1, 0, 1
  8542,  2,  8.333394,         0,      12.1,      -8.3,        1, 0,       0, 0, 1, 0, 0, 1, 1, 100,        25,         0, 1, 1, 0, 1, 0, 1, 0, 1, 0, 1
  8542,  3,  8.333394,         0,      12.1,      -8.3,        1, 0,       0, 0, 1, 0, 0, 1, 1, 100,        25,         0, 1, 1, 0, 1, 0, 1, 0, 1, 0, 1
  8542,  4,  20.10015,         0,      29.2,     -20.1,        1, 0,       0, 0, 1, 0, 0, 1, 1, 100,      60.3,         0, 1, 1, 0, 1, 0, 1, 0, 1, 0, 1
  8542,  5,  19.20014,         0,      27.9,     -19.2,        1, 0,       0, 0, 1, 0, 0, 1, 1, 100,      57.6,         0, 1, 1, 0, 1, 0, 1, 0, 1, 0, 1
  1743,  1,  4.033363,         0,  18.77714, -14.67071,        1, 0,       0, 0, 1, 0, 0, 1, 1, 100,      12.1,         0, 1, 1, 0, 1, 0, 1, 0, 1, 0, 1
  1735,  1, 0.2333348,         0,  18.77714, -14.67071,        1, 0,       0, 0, 1, 0, 0, 1, 1, 100,       0.7,         0, 1, 1, 0, 1, 0, 1, 0, 1, 0, 1
  1735,  2, 0.2333348,         0,  18.77714, -14.67071,        1, 0,       0, 0, 1, 0, 0, 1, 1, 100,       0.7,         0, 1, 1, 0, 1, 0, 1, 0, 1, 0, 1
  8578,  1,  4.000029,         0,      5.95,      -4.1,        1, 0,       0, 0, 1, 0, 0, 1, 1, 100,        12,         0, 1, 1, 0, 1, 0, 1, 0, 1, 0, 1
  8578,  2,  4.000029,         0,      5.95,      -4.1,        1, 0,       0, 0, 1, 0, 0, 1, 1, 100,        12,         0, 1, 1, 0, 1, 0, 1, 0, 1, 0, 1
  8578,  3,  4.000029,         0,      5.95,      -4.1,        1, 0,       0, 0, 1, 0, 0, 1, 1, 100,        12,         0, 1, 1, 0, 1, 0, 1, 0, 1, 0, 1
  8578,  4,  4.400032,         0,      5.95,      -4.1,        1, 0,       0, 0, 1, 0, 0, 1, 1, 100,      13.2,         0, 1, 1, 0, 1, 0, 1, 0, 1, 0, 1
   744,  2,  7.333387,         0,      16.5,      -7.3,        1, 0,       0, 0, 1, 0, 0, 1, 1, 100,        22,         0, 1, 1, 0, 1, 0, 1, 0, 1, 0, 1
   106,  1,  3.333358,         0,       7.5,     -3.35,        1, 0,       0, 0, 1, 0, 0, 1, 1, 100,        10,         0, 1, 1, 0, 1, 0, 1, 0, 1, 0, 1
   106,  2,  3.333358,         0,       7.5,     -3.35,        1, 0,       0, 0, 1, 0, 0, 1, 1, 100,        10,         0, 1, 1, 0, 1, 0, 1, 0, 1, 0, 1
  7778,  1,  10.76675,         0,      15.6,     -10.8,        1, 0,       0, 0, 1, 0, 0, 1, 1, 100,      32.3,         0, 1, 1, 0, 1, 0, 1, 0, 1, 0, 1
  7778,  2,  11.70009,         0,        17,     -11.7,        1, 0,       0, 0, 1, 0, 0, 1, 1, 100,      35.1,         0, 1, 1, 0, 1, 0, 1, 0, 1, 0, 1
  7778,  3,  11.70009,         0,        17,     -11.7,        1, 0,       0, 0, 1, 0, 0, 1, 1, 100,      35.1,         0, 1, 1, 0, 1, 0, 1, 0, 1, 0, 1
  1634,  1,  22.50017,         0,      32.7,     -22.5,        1, 0,       0, 0, 1, 0, 0, 1, 1, 100,      67.5,         0, 1, 1, 0, 1, 0, 1, 0, 1, 0, 1
  1634,  2,  22.50017,         0,      32.7,     -22.5,        1, 0,       0, 0, 1, 0, 0, 1, 1, 100,      67.5,         0, 1, 1, 0, 1, 0, 1, 0, 1, 0, 1
   749,  1,  4.533366,         0,  18.77714, -14.67071,        1, 0,       0, 0, 1, 0, 0, 1, 1, 100,      13.6,         0, 1, 1, 0, 1, 0, 1, 0, 1, 0, 1
   339,  1, 0.8666728,         0,  18.77714, -14.67071,        1, 0,       0, 0, 1, 0, 0, 1, 1, 100,       2.6,         0, 1, 1, 0, 1, 0, 1, 0, 1, 0, 1
   339,  2, 0.9000063,         0,  18.77714, -14.67071,        1, 0,       0, 0, 1, 0, 0, 1, 1, 100,       2.7,         0, 1, 1, 0, 1, 0, 1, 0, 1, 0, 1
  1286,  1,  3.333358,         0,  18.77714, -14.67071,        1, 0,       0, 0, 1, 0, 0, 1, 1, 100,        10,         0, 1, 1, 0, 1, 0, 1, 0, 1, 0, 1
  8427,  1,  3.333358,         0,  18.77714, -14.67071,        1, 0,       0, 0, 1, 0, 0, 1, 1, 100,        10,         0, 1, 1, 0, 1, 0, 1, 0, 1, 0, 1
   170,  1,  16.70012,         0,  12.52222, -5.566667,        1, 0,       0, 0, 1, 0, 0, 1, 1, 100,      16.7,         0, 1, 1, 0, 1, 0, 1, 0, 1, 0, 1
   170,  2,  16.70012,         0,  12.52222, -5.566667,        1, 0,       0, 0, 1, 0, 0, 1, 1, 100,      16.7,         0, 1, 1, 0, 1, 0, 1, 0, 1, 0, 1
   170,  3,  16.70012,         0,  12.52222, -5.566667,        1, 0,       0, 0, 1, 0, 0, 1, 1, 100,      16.7,         0, 1, 1, 0, 1, 0, 1, 0, 1, 0, 1
   170,  4,  16.70012,         0,  12.52222, -5.566667,        1, 0,       0, 0, 1, 0, 0, 1, 1, 100,      16.7,         0, 1, 1, 0, 1, 0, 1, 0, 1, 0, 1
   170,  5,  16.70012,         0,  12.52222, -5.566667,        1, 0,       0, 0, 1, 0, 0, 1, 1, 100,      16.7,         0, 1, 1, 0, 1, 0, 1, 0, 1, 0, 1
   170,  6,  16.70012,         0,  12.52222, -5.566667,        1, 0,       0, 0, 1, 0, 0, 1, 1, 100,      16.7,         0, 1, 1, 0, 1, 0, 1, 0, 1, 0, 1
   170,  7,  16.70012,         0,  12.52222, -5.566667,        1, 0,       0, 0, 1, 0, 0, 1, 1, 100,      16.7,         0, 1, 1, 0, 1, 0, 1, 0, 1, 0, 1
   170,  8,  16.70012,         0,  12.52222, -5.566667,        1, 0,       0, 0, 1, 0, 0, 1, 1, 100,      16.7,         0, 1, 1, 0, 1, 0, 1, 0, 1, 0, 1
   170,  9,  16.70012,         0,  12.52222, -5.566667,        1, 0,       0, 0, 1, 0, 0, 1, 1, 100,      16.7,         0, 1, 1, 0, 1, 0, 1, 0, 1, 0, 1
   170, 10,  16.70012,         0,  12.52222, -5.566667,        1, 0,       0, 0, 1, 0, 0, 1, 1, 100,      16.7,         0, 1, 1, 0, 1, 0, 1, 0, 1, 0, 1
  1746,  1,  2.533352,         0,  18.77714, -14.67071,        1, 0,       0, 0, 1, 0, 0, 1, 1, 100,       7.6,         0, 1, 1, 0, 1, 0, 1, 0, 1, 0, 1
  1728,  1,  28.36688,         0,      41.2,     -28.4,        1, 0,       0, 0, 1, 0, 0, 1, 1, 100,      85.1,         0, 1, 1, 0, 1, 0, 1, 0, 1, 0, 1
  1728,  2,  27.83354,         0,      40.4,     -27.8,        1, 0,       0, 0, 1, 0, 0, 1, 1, 100,      83.5,         0, 1, 1, 0, 1, 0, 1, 0, 1, 0, 1
  1643,  1,  3.766694,         0,  18.77714, -14.67071,        1, 0,       0, 0, 1, 0, 0, 1, 1, 100,      11.3,         0, 1, 1, 0, 1, 0, 1, 0, 1, 0, 1
  1643,  2,  3.766694,         0,  18.77714, -14.67071,        1, 0,       0, 0, 1, 0, 0, 1, 1, 100,      11.3,         0, 1, 1, 0, 1, 0, 1, 0, 1, 0, 1
  1734,  1, 0.5000035,         0,  18.77714, -14.67071,        1, 0,       0, 0, 1, 0, 0, 1, 1, 100,       1.5,         0, 1, 1, 0, 1, 0, 1, 0, 1, 0, 1
   615,  1,  1.133341,         0,  18.77714, -14.67071,        1, 0,       0, 0, 1, 0, 0, 1, 1, 100,       3.4,         0, 1, 1, 0, 1, 0, 1, 0, 1, 0, 1
  7971,  1,   181.824,         0,     144.4,     -77.7,        1, 0,       0, 0, 1, 0, 0, 1, 1, 100,       233,         0, 1, 1, 0, 1, 0, 1, 0, 1, 0, 1
  7971,  2,   181.824,         0,     144.4,     -77.7,        1, 0,       0, 0, 1, 0, 0, 1, 1, 100,       233,         0, 1, 1, 0, 1, 0, 1, 0, 1, 0, 1
  7971,  3,   181.824,         0,     144.4,     -77.7,        1, 0,       0, 0, 1, 0, 0, 1, 1, 100,       233,         0, 1, 1, 0, 1, 0, 1, 0, 1, 0, 1
  7971,  4,   181.824,         0,     144.4,     -77.7,        1, 0,       0, 0, 1, 0, 0, 1, 1, 100,       233,         0, 1, 1, 0, 1, 0, 1, 0, 1, 0, 1
  7971,  5,   181.824,         0,     144.4,     -77.7,        1, 0,       0, 0, 1, 0, 0, 1, 1, 100,       233,         0, 1, 1, 0, 1, 0, 1, 0, 1, 0, 1
  7971,  6,   181.824,         0,     144.4,     -77.7,        1, 0,       0, 0, 1, 0, 0, 1, 1, 100,       233,         0, 1, 1, 0, 1, 0, 1, 0, 1, 0, 1
    60,  1,  1.200009,         0,  18.77714, -14.67071,        1, 0,       0, 0, 1, 0, 0, 1, 1, 100,       3.6,         0, 1, 1, 0, 1, 0, 1, 0, 1, 0, 1
  1448,  1,  0.533337,         0,  18.77714, -14.67071,        1, 0,       0, 0, 1, 0, 0, 1, 1, 100,       1.6,         0, 1, 1, 0, 1, 0, 1, 0, 1, 0, 1
  8553,  1,  11.53342,         0,      16.8,     -11.5,        1, 0,       0, 0, 1, 0, 0, 1, 1, 100,      34.6,         0, 1, 1, 0, 1, 0, 1, 0, 1, 0, 1
  8553,  2,  11.53342,         0,      16.8,     -11.5,        1, 0,       0, 0, 1, 0, 0, 1, 1, 100,      34.6,         0, 1, 1, 0, 1, 0, 1, 0, 1, 0, 1
  1727,  1,  17.23346,         0,        25,     -17.2,        1, 0,       0, 0, 1, 0, 0, 1, 1, 100,      51.7,         0, 1, 1, 0, 1, 0, 1, 0, 1, 0, 1
  1727,  2,  17.23346,         0,        25,     -17.2,        1, 0,       0, 0, 1, 0, 0, 1, 1, 100,      51.7,         0, 1, 1, 0, 1, 0, 1, 0, 1, 0, 1
  1730,  1,  12.73343,         0,      21.6,     -12.7,        1, 0,       0, 0, 1, 0, 0, 1, 1, 100,      38.2,         0, 1, 1, 0, 1, 0, 1, 0, 1, 0, 1
  1730,  2,  12.73343,         0,      21.6,     -12.7,        1, 0,       0, 0, 1, 0, 0, 1, 1, 100,      38.2,         0, 1, 1, 0, 1, 0, 1, 0, 1, 0, 1
  1730,  3,  11.06675,         0,      24.9,     -11.1,        1, 0,       0, 0, 1, 0, 0, 1, 1, 100,      33.2,         0, 1, 1, 0, 1, 0, 1, 0, 1, 0, 1
  1730,  4,  10.66675,         0,        24,     -10.7,        1, 0,       0, 0, 1, 0, 0, 1, 1, 100,        32,         0, 1, 1, 0, 1, 0, 1, 0, 1, 0, 1
  1729,  1,   13.2001,         0,      19.2,     -13.2,        1, 0,       0, 0, 1, 0, 0, 1, 1, 100,      39.6,         0, 1, 1, 0, 1, 0, 1, 0, 1, 0, 1
  1729,  2,   13.2001,         0,      19.2,     -13.2,        1, 0,       0, 0, 1, 0, 0, 1, 1, 100,      39.6,         0, 1, 1, 0, 1, 0, 1, 0, 1, 0, 1
  1501,  1,  1.466677,         0,  18.77714, -14.67071,        1, 0,       0, 0, 1, 0, 0, 1, 1, 100,       4.4,         0, 1, 1, 0, 1, 0, 1, 0, 1, 0, 1
  1501,  2, 0.6666713,         0,  18.77714, -14.67071,        1, 0,       0, 0, 1, 0, 0, 1, 1, 100,         2,         0, 1, 1, 0, 1, 0, 1, 0, 1, 0, 1
  1501,  3,  1.000007,         0,  18.77714, -14.67071,        1, 0,       0, 0, 1, 0, 0, 1, 1, 100,         3,         0, 1, 1, 0, 1, 0, 1, 0, 1, 0, 1
  2220,  3,  21.00015,         0,      30.5,       -21,        1, 0,       0, 0, 1, 0, 0, 1, 1, 100,        63,         0, 1, 1, 0, 1, 0, 1, 0, 1, 0, 1
  2220,  4,  21.00015,         0,      30.5,       -21,        1, 0,       0, 0, 1, 0, 0, 1, 1, 100,        63,         0, 1, 1, 0, 1, 0, 1, 0, 1, 0, 1
    32,  1,   4.10003,         0,  18.77714, -14.67071,        1, 0,       0, 0, 1, 0, 0, 1, 1, 100,      12.3,         0, 1, 1, 0, 1, 0, 1, 0, 1, 0, 1
    32,  2,  9.900073,         0,      14.4,      -9.9,        1, 0,       0, 0, 1, 0, 0, 1, 1, 100,      29.7,         0, 1, 1, 0, 1, 0, 1, 0, 1, 0, 1
  1745,  2,  2.233349,         0,  18.77714, -14.67071,        1, 0,       0, 0, 1, 0, 0, 1, 1, 100,       6.7,         0, 1, 1, 0, 1, 0, 1, 0, 1, 0, 1
   746,  1,   2.33335,         0,  18.77714, -14.67071,        1, 0,       0, 0, 1, 0, 0, 1, 1, 100,         7,         0, 1, 1, 0, 1, 0, 1, 0, 1, 0, 1
   746,  2,  1.233342,         0,  18.77714, -14.67071,        1, 0,       0, 0, 1, 0, 0, 1, 1, 100,       3.7,         0, 1, 1, 0, 1, 0, 1, 0, 1, 0, 1
   746,  3,  2.200016,         0,  18.77714, -14.67071,        1, 0,       0, 0, 1, 0, 0, 1, 1, 100,       6.6,         0, 1, 1, 0, 1, 0, 1, 0, 1, 0, 1
  1502,  1,  2.000014,         0,  18.77714, -14.67071,        1, 0,       0, 0, 1, 0, 0, 1, 1, 100,         6,         0, 1, 1, 0, 1, 0, 1, 0, 1, 0, 1
  1890,  1,   27.3002,         0,      39.7,     -27.3,        1, 0,       0, 0, 1, 0, 0, 1, 1, 100,      81.9,         0, 1, 1, 0, 1, 0, 1, 0, 1, 0, 1
  8623,  1,  8.500062,         0,      15.8,      -8.5,        1, 0,       0, 0, 1, 0, 0, 1, 1, 100,      25.5,         0, 1, 1, 0, 1, 0, 1, 0, 1, 0, 1
  8623,  2,  8.900065,         0,      16.5,      -8.9,        1, 0,       0, 0, 1, 0, 0, 1, 1, 100,      26.7,         0, 1, 1, 0, 1, 0, 1, 0, 1, 0, 1
  1892,  1,   1.40001,         0,  18.77714, -14.67071,        1, 0,       0, 0, 1, 0, 0, 1, 1, 100,       4.2,         0, 1, 1, 0, 1, 0, 1, 0, 1, 0, 1
  1892,  2,   1.40001,         0,  18.77714, -14.67071,        1, 0,       0, 0, 1, 0, 0, 1, 1, 100,       4.2,         0, 1, 1, 0, 1, 0, 1, 0, 1, 0, 1
  1745,  3,  2.833354,         0,  18.77714, -14.67071,        1, 0,       0, 0, 1, 0, 0, 1, 1, 100,       8.5,         0, 1, 1, 0, 1, 0, 1, 0, 1, 0, 1
  1958,  1,  4.533366,         0,  18.77714, -14.67071,        1, 0,       0, 0, 1, 0, 0, 1, 1, 100,      13.6,         0, 1, 1, 0, 1, 0, 1, 0, 1, 0, 1
  1755,  1,  4.533366,         0,  18.77714, -14.67071,        1, 0,       0, 0, 1, 0, 0, 1, 1, 100,      13.6,         0, 1, 1, 0, 1, 0, 1, 0, 1, 0, 1
  1755,  2, 0.9333399,         0,  18.77714, -14.67071,        1, 0,       0, 0, 1, 0, 0, 1, 1, 100,       2.8,         0, 1, 1, 0, 1, 0, 1, 0, 1, 0, 1
  1724,  1,  3.333358,         0,       7.5,     -3.35,        1, 0,       0, 0, 1, 0, 0, 1, 1, 100,        10,         0, 1, 1, 0, 1, 0, 1, 0, 1, 0, 1
  1724,  2,  3.333358,         0,       7.5,     -3.35,        1, 0,       0, 0, 1, 0, 0, 1, 1, 100,        10,         0, 1, 1, 0, 1, 0, 1, 0, 1, 0, 1
  8064,  1,  4.500033,         0,      6.55,      -4.5,        1, 0,       0, 0, 1, 0, 0, 1, 1, 100,      13.5,         0, 1, 1, 0, 1, 0, 1, 0, 1, 0, 1
  8064,  2,  4.500033,         0,      6.55,      -4.5,        1, 0,       0, 0, 1, 0, 0, 1, 1, 100,      13.5,         0, 1, 1, 0, 1, 0, 1, 0, 1, 0, 1
  8064,  3, 0.1666676,         0,      6.55,      -4.5,        1, 0,       0, 0, 1, 0, 0, 1, 1, 100,       0.5,         0, 1, 1, 0, 1, 0, 1, 0, 1, 0, 1
  8064,  4, 0.1333341,         0,      6.55,      -4.5,        1, 0,       0, 0, 1, 0, 0, 1, 1, 100,       0.4,         0, 1, 1, 0, 1, 0, 1, 0, 1, 0, 1
  8064,  5, 0.4000027,         0,      6.55,      -4.5,        1, 0,       0, 0, 1, 0, 0, 1, 1, 100,       1.2,         0, 1, 1, 0, 1, 0, 1, 0, 1, 0, 1
  1723,  1,  6.000044,         0,  18.77714, -14.67071,        1, 0,       0, 0, 1, 0, 0, 1, 1, 100,        18,         0, 1, 1, 0, 1, 0, 1, 0, 1, 0, 1
  1722,  1, 0.6666713,         0,  18.77714, -14.67071,        1, 0,       0, 0, 1, 0, 0, 1, 1, 100,         2,         0, 1, 1, 0, 1, 0, 1, 0, 1, 0, 1
  1722,  2, 0.6666713,         0,  18.77714, -14.67071,        1, 0,       0, 0, 1, 0, 0, 1, 1, 100,         2,         0, 1, 1, 0, 1, 0, 1, 0, 1, 0, 1
  8113,  1,         0,         0,         0,         0,        1, 0,       0, 0, 1, 0, 0, 1, 1, 100,       310,         0, 1, 1, 0, 1, 0, 1, 0, 1, 0, 1
  8113,  2,         0,         0,         0,         0,        1, 0,       0, 0, 1, 0, 0, 1, 1, 100,       310,         0, 1, 1, 0, 1, 0, 1, 0, 1, 0, 1
  8113,  3,         0,         0,         0,         0,        1, 0,       0, 0, 1, 0, 0, 1, 1, 100,       495,         0, 1, 1, 0, 1, 0, 1, 0, 1, 0, 1
  1632,  1,  5.266705,         0,     5.325,    -5.325,        1, 0,       0, 0, 1, 0, 0, 1, 1, 100,      15.8,         0, 1, 1, 0, 1, 0, 1, 0, 1, 0, 1
  1632,  2,  5.266705,         0,     5.325,    -5.325,        1, 0,       0, 0, 1, 0, 0, 1, 1, 100,      15.8,         0, 1, 1, 0, 1, 0, 1, 0, 1, 0, 1
  1632,  3,  5.833376,         0,     5.325,    -5.325,        1, 0,       0, 0, 1, 0, 0, 1, 1, 100,      17.5,         0, 1, 1, 0, 1, 0, 1, 0, 1, 0, 1
  1632,  4,  5.833376,         0,     5.325,    -5.325,        1, 0,       0, 0, 1, 0, 0, 1, 1, 100,      17.5,         0, 1, 1, 0, 1, 0, 1, 0, 1, 0, 1
  1644,  1,  11.33342,         0,         0,         0,        1, 0,       0, 0, 1, 0, 0, 1, 1, 100,        34,         0, 1, 1, 0, 1, 0, 1, 0, 1, 0, 1
  1644,  2,  11.33342,         0,         0,         0,        1, 0,       0, 0, 1, 0, 0, 1, 1, 100,        34,         0, 1, 1, 0, 1, 0, 1, 0, 1, 0, 1
  1644,  3,  11.33342,         0,         0,         0,        1, 0,       0, 0, 1, 0, 0, 1, 1, 100,        34,         0, 1, 1, 0, 1, 0, 1, 0, 1, 0, 1
  1644,  4,  12.00009,         0,      17.4,       -12,        1, 0,       0, 0, 1, 0, 0, 1, 1, 100,        36,         0, 1, 1, 0, 1, 0, 1, 0, 1, 0, 1
  1644,  5,  12.16676,         0,      17.7,     -12.2,        1, 0,       0, 0, 1, 0, 0, 1, 1, 100,      36.5,         0, 1, 1, 0, 1, 0, 1, 0, 1, 0, 1
  1635,  1,  10.00007,         0,         0,         0,        1, 0,       0, 0, 1, 0, 0, 1, 1, 100,        30,         0, 1, 1, 0, 1, 0, 1, 0, 1, 0, 1
  1635,  2,  15.00011,         0,      21.8,       -15,        1, 0,       0, 0, 1, 0, 0, 1, 1, 100,        45,         0, 1, 1, 0, 1, 0, 1, 0, 1, 0, 1
  1632,  5,  18.33347,         0,     5.325,    -5.325,        1, 0,       0, 0, 1, 0, 0, 1, 1, 100,        55,         0, 1, 1, 0, 1, 0, 1, 0, 1, 0, 1
  1632,  6,  18.33347,         0,     5.325,    -5.325,        1, 0,       0, 0, 1, 0, 0, 1, 1, 100,        55,         0, 1, 1, 0, 1, 0, 1, 0, 1, 0, 1
  1631,  1, 0.8333392,         0,  18.77714, -14.67071,        1, 0,       0, 0, 1, 0, 0, 1, 1, 100,       2.5,         0, 1, 1, 0, 1, 0, 1, 0, 1, 0, 1
  1631,  2, 0.8333392,         0,  18.77714, -14.67071,        1, 0,       0, 0, 1, 0, 0, 1, 1, 100,       2.5,         0, 1, 1, 0, 1, 0, 1, 0, 1, 0, 1
  1631,  3, 0.7666721,         0,  18.77714, -14.67071,        1, 0,       0, 0, 1, 0, 0, 1, 1, 100,       2.3,         0, 1, 1, 0, 1, 0, 1, 0, 1, 0, 1
  8381,  1, 0.9333399,         0,  18.77714, -14.67071,        1, 0,       0, 0, 1, 0, 0, 1, 1, 100,       2.8,         0, 1, 1, 0, 1, 0, 1, 0, 1, 0, 1
  8381,  2, 0.9333399,         0,  18.77714, -14.67071,        1, 0,       0, 0, 1, 0, 0, 1, 1, 100,       2.8,         0, 1, 1, 0, 1, 0, 1, 0, 1, 0, 1
  8381,  3, 0.9333399,         0,  18.77714, -14.67071,        1, 0,       0, 0, 1, 0, 0, 1, 1, 100,       2.8,         0, 1, 1, 0, 1, 0, 1, 0, 1, 0, 1
  1629,  1, 0.3333355,         0,  18.77714, -14.67071,        1, 0,       0, 0, 1, 0, 0, 1, 1, 100,         1,         0, 1, 1, 0, 1, 0, 1, 0, 1, 0, 1
  1629,  2, 0.3333355,         0,  18.77714, -14.67071,        1, 0,       0, 0, 1, 0, 0, 1, 1, 100,         1,         0, 1, 1, 0, 1, 0, 1, 0, 1, 0, 1
  1629,  3, 0.6666713,         0,  18.77714, -14.67071,        1, 0,       0, 0, 1, 0, 0, 1, 1, 100,         2,         0, 1, 1, 0, 1, 0, 1, 0, 1, 0, 1
  1629,  4, 0.7333385,         0,  18.77714, -14.67071,        1, 0,       0, 0, 1, 0, 0, 1, 1, 100,       2.2,         0, 1, 1, 0, 1, 0, 1, 0, 1, 0, 1
  1629,  5, 0.6666713,         0,  18.77714, -14.67071,        1, 0,       0, 0, 1, 0, 0, 1, 1, 100,         2,         0, 1, 1, 0, 1, 0, 1, 0, 1, 0, 1
  2312,  1, 0.6666713,         0,  18.77714, -14.67071,        1, 0,       0, 0, 1, 0, 0, 1, 1, 100,         2,         0, 1, 1, 0, 1, 0, 1, 0, 1, 0, 1
  2312,  2, 0.8333392,         0,  18.77714, -14.67071,        1, 0,       0, 0, 1, 0, 0, 1, 1, 100,       2.5,         0, 1, 1, 0, 1, 0, 1, 0, 1, 0, 1
  2247,  1,  0.533337,         0,  18.77714, -14.67071,        1, 0,       0, 0, 1, 0, 0, 1, 1, 100,       1.6,         0, 1, 1, 0, 1, 0, 1, 0, 1, 0, 1
   285,  1,  1.000007,         0,  18.77714, -14.67071,        1, 0,       0, 0, 1, 0, 0, 1, 1, 100,         3,         0, 1, 1, 0, 1, 0, 1, 0, 1, 0, 1
   285,  2,  1.000007,         0,  18.77714, -14.67071,        1, 0,       0, 0, 1, 0, 0, 1, 1, 100,         3,         0, 1, 1, 0, 1, 0, 1, 0, 1, 0, 1
   285,  3,  2.000014,         0,  18.77714, -14.67071,        1, 0,       0, 0, 1, 0, 0, 1, 1, 100,         6,         0, 1, 1, 0, 1, 0, 1, 0, 1, 0, 1
   990,  1, 0.5000035,         0,  18.77714, -14.67071,        1, 0,       0, 0, 1, 0, 0, 1, 1, 100,       1.5,         0, 1, 1, 0, 1, 0, 1, 0, 1, 0, 1
   990,  2, 0.5000035,         0,  18.77714, -14.67071,        1, 0,       0, 0, 1, 0, 0, 1, 1, 100,       1.5,         0, 1, 1, 0, 1, 0, 1, 0, 1, 0, 1
  8343,  1,         0,         0,         0,         0,        1, 0,       0, 0, 1, 0, 0, 1, 1, 100,       218,         0, 1, 1, 0, 1, 0, 1, 0, 1, 0, 1
  2313,  1, 0.7666721,         0,  18.77714, -14.67071,        1, 0,       0, 0, 1, 0, 0, 1, 1, 100,       2.3,         0, 1, 1, 0, 1, 0, 1, 0, 1, 0, 1
  1663,  1,  6.833383,         0,       9.9,      -6.8,        1, 0,       0, 0, 1, 0, 0, 1, 1, 100,      20.5,         0, 1, 1, 0, 1, 0, 1, 0, 1, 0, 1
  1663,  2,  6.600048,         0,  18.77714, -14.67071,        1, 0,       0, 0, 1, 0, 0, 1, 1, 100,      19.8,         0, 1, 1, 0, 1, 0, 1, 0, 1, 0, 1
  1662,  1,  2.200016,         0,       3.2,      -2.2,        1, 0,       0, 0, 1, 0, 0, 1, 1, 100,       6.6,         0, 1, 1, 0, 1, 0, 1, 0, 1, 0, 1
  1662,  2,  2.200016,         0,       3.2,      -2.2,        1, 0,       0, 0, 1, 0, 0, 1, 1, 100,       6.6,         0, 1, 1, 0, 1, 0, 1, 0, 1, 0, 1
  1662,  3,  2.200016,         0,       3.2,      -2.2,        1, 0,       0, 0, 1, 0, 0, 1, 1, 100,       6.6,         0, 1, 1, 0, 1, 0, 1, 0, 1, 0, 1
  1662,  4,  2.200016,         0,       3.2,      -2.2,        1, 0,       0, 0, 1, 0, 0, 1, 1, 100,       6.6,         0, 1, 1, 0, 1, 0, 1, 0, 1, 0, 1
  8347,  1,  52.30333,         0,      30.5,       -21,        1, 0,       0, 0, 1, 0, 0, 1, 1, 100,        63,         0, 1, 1, 0, 1, 0, 1, 0, 1, 0, 1
  8347,  2,  52.30333,         0,      30.5,       -21,        1, 0,       0, 0, 1, 0, 0, 1, 1, 100,        63,         0, 1, 1, 0, 1, 0, 1, 0, 1, 0, 1
  8347,  3,  52.30333,         0,      30.5,       -21,        1, 0,       0, 0, 1, 0, 0, 1, 1, 100,        63,         0, 1, 1, 0, 1, 0, 1, 0, 1, 0, 1
  8347,  4,  52.30333,         0,      30.5,       -21,        1, 0,       0, 0, 1, 0, 0, 1, 1, 100,        63,         0, 1, 1, 0, 1, 0, 1, 0, 1, 0, 1
  1636,  1,   31.6669,         0,         0,         0,        1, 0,       0, 0, 1, 0, 0, 1, 1, 100,        95,         0, 1, 1, 0, 1, 0, 1, 0, 1, 0, 1
  1636,  2,   31.6669,         0,         0,         0,        1, 0,       0, 0, 1, 0, 0, 1, 1, 100,        95,         0, 1, 1, 0, 1, 0, 1, 0, 1, 0, 1
  1483,  1,         0,         0,     499.5,    -268.7,        1, 0,       0, 0, 1, 0, 0, 1, 1, 100,       806,         0, 1, 1, 0, 1, 0, 1, 0, 1, 0, 1
  1483,  2,         0,         0,     499.5,    -268.7,        1, 0,       0, 0, 1, 0, 0, 1, 1, 100,       806,         0, 1, 1, 0, 1, 0, 1, 0, 1, 0, 1
  1602,  1,  3.766694,         0,  18.77714, -14.67071,        1, 0,       0, 0, 1, 0, 0, 1, 1, 100,      11.3,         0, 1, 1, 0, 1, 0, 1, 0, 1, 0, 1
  7747,  1,         0,         0,         0,         0,        1, 0,       0, 0, 1, 0, 0, 1, 1, 100,     163.2,         0, 1, 1, 0, 1, 0, 1, 0, 1, 0, 1
  7747,  2,         0,         0,         0,         0,        1, 0,       0, 0, 1, 0, 0, 1, 1, 100,     163.2,         0, 1, 1, 0, 1, 0, 1, 0, 1, 0, 1
  7747,  3,         0,         0,         0,         0,        1, 0,       0, 0, 1, 0, 0, 1, 1, 100,       495,         0, 1, 1, 0, 1, 0, 1, 0, 1, 0, 1
  2361,  1,  1.966681,         0,  18.77714, -14.67071,        1, 0,       0, 0, 1, 0, 0, 1, 1, 100,       5.9,         0, 1, 1, 0, 1, 0, 1, 0, 1, 0, 1
  2361,  2,  2.400017,         0,  18.77714, -14.67071,        1, 0,       0, 0, 1, 0, 0, 1, 1, 100,       7.2,         0, 1, 1, 0, 1, 0, 1, 0, 1, 0, 1
  7808,  1,  164.6012,         0,     123.5,     -54.9,        1, 0,       0, 0, 1, 0, 0, 1, 1, 100,     164.6,         0, 1, 1, 0, 1, 0, 1, 0, 1, 0, 1
  7808,  2,  164.6012,         0,     123.5,     -54.9,        1, 0,       0, 0, 1, 0, 0, 1, 1, 100,     164.6,         0, 1, 1, 0, 1, 0, 1, 0, 1, 0, 1
  7808,  3,  144.9317,         0,     141.9,     -63.1,        1, 0,       0, 0, 1, 0, 0, 1, 1, 100,     189.2,         0, 1, 1, 0, 1, 0, 1, 0, 1, 0, 1
  7808,  4,  164.6012,         0,     123.5,     -54.9,        1, 0,       0, 0, 1, 0, 0, 1, 1, 100,     164.6,         0, 1, 1, 0, 1, 0, 1, 0, 1, 0, 1
  7808,  5,  164.6012,         0,     123.5,     -54.9,        1, 0,       0, 0, 1, 0, 0, 1, 1, 100,     164.6,         0, 1, 1, 0, 1, 0, 1, 0, 1, 0, 1
...